Casos/pglib_opf_case1354_pegase/datosLineas.csv
fbus;tbus;r;x;b;rateA;rateB;rateC;ratio;angle;status;angmin;angmax;
7351;5441;0.00018;0.000781;0.0;39412;39412;39412;0.0;0.0;1;-30.0;30.0;
4314;7571;0.002961;0.01669;0.0;319.0;1864;1864;0.0;0.0;1;-30.0;30.0;
5803;3916;0.00056;0.00432;0.0;7252;7252;7252;0.0;0.0;1;-30.0;30.0;
6757;6036;0.0002;0.00246;0.0;657.0;12799;12799;0.0;0.0;1;-30.0;30.0;
6757;6921;0.0003;0.00377;0.0;1315.0;8353;8353;0.0;0.0;1;-30.0;30.0;
5019;9112;0.00014;0.00057;0.0;53817;53817;53817;0.0;0.0;1;-30.0;30.0;
2930;9112;2.00013;0.000729;0.0;42657;42657;42657;0.0;0.0;1;-30.0;30.0;
1436;9112;0.00012;0.000581;0.0;53244;53244;53244;0.0;0.0;1;-30.0;30.0;
1851;9112;0.00011;0.00064;0.0;48642;48642;48642;0.0;0.0;1;-30.0;30.0;
8331;9112;0.00019;0.00056;0.0;53416;53416;53416;0.0;0.0;1;-30.0;30.0;
6220;8791;0.00062;0.004909;0.0;529.0;6384;6384;0.0;0.0;1;-30.0;30.0;
9203;7842;7e-05;0.00076;0.0;887.0;41388;41388;0.0;0.0;1;-30.0;30.0;
9203;8997;0.00066;0.00622;0.0;1611.0;5051;5051;0.0;0.0;1;-30.0;30.0;
9203;2129;0.00054;0.00752;0.0;4190;4190;4190;0.0;0.0;1;-30.0;30.0;
9203;29;0.00105;0.00877;0.0;1315.0;3577;3577;0.0;0.0;1;-30.0;30.0;
118;8903;8e-05;0.00091;0.0;657.0;34578;34578;0.0;0.0;1;-30.0;30.0;
118;4598;0.00056;0.00719;0.0;953.0;4380;4380;0.0;0.0;1;-30.0;30.0;
2426;5533;0.000531;0.002039;0.0;319.0;14992;14992;0.0;0.0;1;-30.0;30.0;
2426;4831;0.008659;0.03769;0.0;300.0;817;817;0.0;0.0;1;-30.0;30.0;
2426;8961;0.003849;0.021099;0.0;1473;1473;1473;0.0;0.0;1;-30.0;30.0;
2426;8522;0.00688;0.035969;0.0;300.0;863;863;0.0;0.0;1;-30.0;30.0;
2426;6888;0.006729;0.03713;0.0;838;838;838;0.0;0.0;1;-30.0;30.0;
2426;3401;0.00111;0.006651;0.0;414.0;4685;4685;0.0;0.0;1;-30.0;30.0;
2426;641;0.0023;0.008909;0.0;3433;3433;3433;0.0;0.0;1;-30.0;30.0;
2426;2600;0.000841;0.00313;0.0;9747;9747;9747;0.0;0.0;1;-30.0;30.0;
2426;5351;0.003521;0.017479;0.0;300.0;1772;1772;0.0;0.0;1;-30.0;30.0;
3051;718;3.9e-05;0.00025;0.0;510.0;124840;124840;0.0;0.0;1;-30.0;30.0;
3036;2327;0.000159;0.000729;0.0;357.0;42335;42335;0.0;0.0;1;-30.0;30.0;
8651;7473;0.005281;0.032099;0.0;395.0;972;972;0.0;0.0;1;-30.0;30.0;
8651;7473;0.005651;0.029419;0.0;376.0;1055;1055;0.0;0.0;1;-30.0;30.0;
903;3654;0.000271;0.00036;0.0;70101;70101;70101;0.0;0.0;1;-30.0;30.0;
8732;7050;0.00044;0.00143;0.0;472.0;21113;21113;0.0;0.0;1;-30.0;30.0;
8732;3912;0.000159;0.00074;0.0;453.0;41734;41734;0.0;0.0;1;-30.0;30.0;
2273;1973;0.00019;0.000591;0.0;338.0;50883;50883;0.0;0.0;1;-30.0;30.0;
5131;2928;0.00019;0.00087;0.0;35472;35472;35472;0.0;0.0;1;-30.0;30.0;
6629;4918;0.002591;0.013659;0.0;319.0;2273;2273;0.0;0.0;1;-30.0;30.0;
6629;7309;0.00305;0.01168;0.0;2617;2617;2617;0.0;0.0;1;-30.0;30.0;
413;1102;0.000159;0.000599;0.0;433.0;50969;50969;0.0;0.0;1;-30.0;30.0;
413;1102;0.000159;0.00062;0.0;395.0;49351;49351;0.0;0.0;1;-30.0;30.0;
3248;4918;0.00101;0.004229;0.0;472.0;7265;7265;0.0;0.0;1;-30.0;30.0;
3248;4281;0.00319;0.018651;0.0;453.0;1670;1670;0.0;0.0;1;-30.0;30.0;
3248;7309;0.000729;0.00337;0.0;9162;9162;9162;0.0;0.0;1;-30.0;30.0;
1146;1187;0.002961;0.012831;0.0;281.0;2399;2399;0.0;0.0;1;-30.0;30.0;
1146;7945;0.000591;0.00339;0.0;9180;9180;9180;0.0;0.0;1;-30.0;30.0;
8900;2421;0.00024;0.001219;0.0;25425;25425;25425;0.0;0.0;1;-30.0;30.0;
6071;2972;0.006219;0.036341;0.0;376.0;857;857;0.0;0.0;1;-30.0;30.0;
6071;6031;0.001841;0.01193;0.0;472.0;2617;2617;0.0;0.0;1;-30.0;30.0;
3293;7264;0.001409;0.01113;0.0;414.0;2816;2816;0.0;0.0;1;-30.0;30.0;
3293;283;0.00151;0.00768;0.0;376.0;4036;4036;0.0;0.0;1;-30.0;30.0;
3293;3069;0.00599;0.03313;0.0;395.0;939;939;0.0;0.0;1;-30.0;30.0;
3293;3390;0.001771;0.010151;0.0;357.0;3066;3066;0.0;0.0;1;-30.0;30.0;
4689;4936;0.00074;0.00311;0.0;9881;9881;9881;0.0;0.0;1;-30.0;30.0;
4689;4936;0.000729;0.003159;0.0;9744;9744;9744;0.0;0.0;1;-30.0;30.0;
3218;7809;0.005271;0.01906;0.0;281.0;1598;1598;0.0;0.0;1;-30.0;30.0;
3218;5455;0.00906;0.053151;0.0;319.0;586;586;0.0;0.0;1;-30.0;30.0;
3218;1857;0.00405;0.0153;0.0;1996;1996;1996;0.0;0.0;1;-30.0;30.0;
6806;5410;0.00055;0.003961;0.0;395.0;7899;7899;0.0;0.0;1;-30.0;30.0;
6806;5410;0.00055;0.003729;0.0;338.0;8381;8381;0.0;0.0;1;-30.0;30.0;
6806;1609;0.00107;0.007789;0.0;414.0;4018;4018;0.0;0.0;1;-30.0;30.0;
6806;1609;0.00112;0.00775;0.0;472.0;4034;4034;0.0;0.0;1;-30.0;30.0;
6806;1609;0.001031;0.00775;0.0;4041;4041;4041;0.0;0.0;1;-30.0;30.0;
6806;2438;0.00062;0.003219;0.0;9636;9636;9636;0.0;0.0;1;-30.0;30.0;
6806;954;0.00068;0.002659;0.0;414.0;11510;11510;0.0;0.0;1;-30.0;30.0;
9140;502;0.00193;0.012479;0.0;491.0;2502;2502;0.0;0.0;1;-30.0;30.0;
9140;3013;0.001159;0.007229;0.0;4315;4315;4315;0.0;0.0;1;-30.0;30.0;
9140;2949;0.00137;0.008729;0.0;395.0;3575;3575;0.0;0.0;1;-30.0;30.0;
9140;2949;0.001401;0.00855;0.0;433.0;3646;3646;0.0;0.0;1;-30.0;30.0;
9140;2949;0.001331;0.008521;0.0;433.0;3663;3663;0.0;0.0;1;-30.0;30.0;
7070;2208;0.00031;0.00081;0.0;281.0;36421;36421;0.0;0.0;1;-30.0;30.0;
7070;8060;0.000341;0.00119;0.0;281.0;25518;25518;0.0;0.0;1;-30.0;30.0;
7070;4484;0.00031;0.001281;0.0;376.0;23967;23967;0.0;0.0;1;-30.0;30.0;
7070;4239;0.00094;0.0035;0.0;433.0;8717;8717;0.0;0.0;1;-30.0;30.0;
8535;7047;7e-05;0.000651;0.0;48244;48244;48244;0.0;0.0;1;-30.0;30.0;
5477;3657;0.00019;0.00124;0.0;491.0;25180;25180;0.0;0.0;1;-30.0;30.0;
5477;2928;0.000331;0.002539;0.0;433.0;12337;12337;0.0;0.0;1;-30.0;30.0;
3145;2918;0.0016;0.02113;0.0;1491;1491;1491;0.0;0.0;1;-30.0;30.0;
7770;5317;0.000909;0.004711;0.0;357.0;6584;6584;0.0;0.0;1;-30.0;30.0;
7770;5317;0.00088;0.004969;0.0;319.0;6260;6260;0.0;0.0;1;-30.0;30.0;
3;8676;0.001841;0.0088;0.0;3514;3514;3514;0.0;0.0;1;-30.0;30.0;
3;8189;0.01013;0.04238;0.0;395.0;725;725;0.0;0.0;1;-30.0;30.0;
7267;2938;0.00059;0.00802;0.0;723.0;3928;3928;0.0;0.0;1;-30.0;30.0;
7267;2938;0.00054;0.0079;0.0;657.0;3990;3990;0.0;0.0;1;-30.0;30.0;
7267;3918;0.00171;0.02128;0.0;986.0;1480;1480;0.0;0.0;1;-30.0;30.0;
7267;3918;0.00174;0.02084;0.0;854.0;1511;1511;0.0;0.0;1;-30.0;30.0;
7267;6581;0.00086;0.01433;0.0;1151.0;2201;2201;0.0;0.0;1;-30.0;30.0;
7267;6581;0.00087;0.01404;0.0;723.0;2246;2246;0.0;0.0;1;-30.0;30.0;
7267;3830;0.00126;0.01447;0.0;1118.0;2175;2175;0.0;0.0;1;-30.0;30.0;
7267;5648;0.00122;0.01509;0.0;1052.0;2087;2087;0.0;0.0;1;-30.0;30.0;
7267;5648;0.00154;0.019;0.0;1282.0;1658;1658;0.0;0.0;1;-30.0;30.0;
4918;4907;0.00474;0.03564;0.0;472.0;879;879;0.0;0.0;1;-30.0;30.0;
4918;5957;0.006;0.047849;0.0;433.0;656;656;0.0;0.0;1;-30.0;30.0;
4918;5233;0.008039;0.03375;0.0;281.0;911;911;0.0;0.0;1;-30.0;30.0;
6854;7309;2.1e-05;0.000211;0.0;510.0;148968;148968;0.0;0.0;1;-30.0;30.0;
8311;3680;0.00045;0.002341;0.0;13251;13251;13251;0.0;0.0;1;-30.0;30.0;
2770;8804;0.000669;0.004281;0.0;433.0;7291;7291;0.0;0.0;1;-30.0;30.0;
9241;8804;0.00068;0.00419;0.0;7442;7442;7442;0.0;0.0;1;-30.0;30.0;
3083;7124;0.000729;0.00431;0.0;510.0;7227;7227;0.0;0.0;1;-30.0;30.0;
3083;7124;0.000591;0.004651;0.0;453.0;6738;6738;0.0;0.0;1;-30.0;30.0;
3083;8873;0.00099;0.005081;0.0;338.0;6103;6103;0.0;0.0;1;-30.0;30.0;
1566;7582;0.00212;0.013031;0.0;2393;2393;2393;0.0;0.0;1;-30.0;30.0;
1566;3541;0.002159;0.01275;0.0;2443;2443;2443;0.0;0.0;1;-30.0;30.0;
8683;3698;0.00025;0.00095;0.0;32156;32156;32156;0.0;0.0;1;-30.0;30.0;
8683;3698;0.000271;0.00089;0.0;33953;33953;33953;0.0;0.0;1;-30.0;30.0;
8683;2801;0.001961;0.012409;0.0;281.0;2515;2515;0.0;0.0;1;-30.0;30.0;
8683;8328;0.00044;0.00207;0.0;472.0;14927;14927;0.0;0.0;1;-30.0;30.0;
8683;8511;0.000469;0.00143;0.0;529.0;20990;20990;0.0;0.0;1;-30.0;30.0;
8683;6570;0.001271;0.01406;0.0;529.0;2238;2238;0.0;0.0;1;-30.0;30.0;
8683;6570;0.00124;0.013021;0.0;529.0;2415;2415;0.0;0.0;1;-30.0;30.0;
8683;8975;0.000409;0.00239;0.0;13028;13028;13028;0.0;0.0;1;-30.0;30.0;
8683;216;0.00094;0.005;0.0;338.0;6209;6209;0.0;0.0;1;-30.0;30.0;
8683;2961;0.000219;0.0007;0.0;529.0;43067;43067;0.0;0.0;1;-30.0;30.0;
8683;6773;6e-05;0.00025;0.0;122861;122861;122861;0.0;0.0;1;-30.0;30.0;
8683;5278;5e-05;0.000229;0.0;134762;134762;134762;0.0;0.0;1;-30.0;30.0;
3768;2751;0.00019;0.000909;0.0;34015;34015;34015;0.0;0.0;1;-30.0;30.0;
2276;5546;0.001711;0.00782;0.0;3946;3946;3946;0.0;0.0;1;-30.0;30.0;
2276;6816;0.002651;0.01176;0.0;319.0;2621;2621;0.0;0.0;1;-30.0;30.0;
7766;444;0.001409;0.010599;0.0;2955;2955;2955;0.0;0.0;1;-30.0;30.0;
7766;5334;0.001419;0.010219;0.0;3062;3062;3062;0.0;0.0;1;-30.0;30.0;
839;3918;0.00013;0.00212;0.0;756.0;14872;14872;0.0;0.0;1;-30.0;30.0;
839;809;0.00026;0.00313;0.0;1282.0;10058;10058;0.0;0.0;1;-30.0;30.0;
4506;2286;0.0047;0.0318;0.0;376.0;983;983;0.0;0.0;1;-30.0;30.0;
4506;6802;0.00136;0.00768;0.0;338.0;4050;4050;0.0;0.0;1;-30.0;30.0;
4506;3520;0.005669;0.027789;0.0;300.0;1114;1114;0.0;0.0;1;-30.0;30.0;
7273;6271;0.004409;0.033091;0.0;281.0;947;947;0.0;0.0;1;-30.0;30.0;
7273;1435;0.01056;0.044469;0.0;692;692;692;0.0;0.0;1;-30.0;30.0;
7273;7148;0.01963;0.07736;0.0;338.0;396;396;0.0;0.0;1;-30.0;30.0;
7273;7437;0.01157;0.04694;0.0;357.0;654;654;0.0;0.0;1;-30.0;30.0;
6104;871;0.000479;0.00255;0.0;357.0;12175;12175;0.0;0.0;1;-30.0;30.0;
7580;871;0.000469;0.00236;0.0;13128;13128;13128;0.0;0.0;1;-30.0;30.0;
1188;1539;0.01237;0.067039;0.0;281.0;464;464;0.0;0.0;1;-30.0;30.0;
1188;8515;0.0132;0.056229;0.0;281.0;547;547;0.0;0.0;1;-30.0;30.0;
3971;4084;0.00026;0.001711;0.0;18252;18252;18252;0.0;0.0;1;-30.0;30.0;
3971;4084;0.000271;0.001669;0.0;18682;18682;18682;0.0;0.0;1;-30.0;30.0;
6845;5340;0.000211;0.000401;0.0;69711;69711;69711;0.0;0.0;1;-30.0;30.0;
8294;5814;0.00105;0.005159;0.0;6000;6000;6000;0.0;0.0;1;-30.0;30.0;
7115;6807;0.00212;0.00931;0.0;319.0;3309;3309;0.0;0.0;1;-30.0;30.0;
619;6791;0.000151;0.00068;0.0;45348;45348;45348;0.0;0.0;1;-30.0;30.0;
5418;4908;0.00019;0.00082;0.0;37527;37527;37527;0.0;0.0;1;-30.0;30.0;
5120;6816;0.003219;0.01405;0.0;300.0;2192;2192;0.0;0.0;1;-30.0;30.0;
6692;9158;0.007271;0.033159;0.0;281.0;931;931;0.0;0.0;1;-30.0;30.0;
6692;8035;0.006659;0.03132;0.0;300.0;987;987;0.0;0.0;1;-30.0;30.0;
3445;2848;0.00057;0.00668;0.0;1480.0;4712;4712;0.0;0.0;1;-30.0;30.0;
3445;7056;0.00057;0.00758;0.0;1414.0;4156;4156;0.0;0.0;1;-30.0;30.0;
3445;7056;0.00039;0.00607;0.0;821.0;5194;5194;0.0;0.0;1;-30.0;30.0;
3445;1642;0.00155;0.0179;0.0;1759;1759;1759;0.0;0.0;1;-30.0;30.0;
3445;4594;0.00036;0.00485;0.0;1545.0;6495;6495;0.0;0.0;1;-30.0;30.0;
6114;1692;0.000581;0.004229;0.0;338.0;7400;7400;0.0;0.0;1;-30.0;30.0;
6114;8190;0.00056;0.00431;0.0;7268;7268;7268;0.0;0.0;1;-30.0;30.0;
6114;5836;0.003099;0.020531;0.0;472.0;1522;1522;0.0;0.0;1;-30.0;30.0;
6114;3191;0.00118;0.016919;0.0;510.0;1863;1863;0.0;0.0;1;-30.0;30.0;
6114;5300;0.00188;0.01407;0.0;2226;2226;2226;0.0;0.0;1;-30.0;30.0;
6114;4889;0.00545;0.04082;0.0;357.0;768;768;0.0;0.0;1;-30.0;30.0;
7264;444;0.00214;0.01639;0.0;453.0;1912;1912;0.0;0.0;1;-30.0;30.0;
7264;4747;0.002479;0.01549;0.0;2014;2014;2014;0.0;0.0;1;-30.0;30.0;
7982;9011;0.000159;0.001229;0.0;472.0;25490;25490;0.0;0.0;1;-30.0;30.0;
7982;6675;0.00026;0.00162;0.0;453.0;19252;19252;0.0;0.0;1;-30.0;30.0;
7982;6909;0.000159;0.00113;0.0;376.0;27681;27681;0.0;0.0;1;-30.0;30.0;
7982;8835;0.000461;0.003219;0.0;472.0;9714;9714;0.0;0.0;1;-30.0;30.0;
7982;4186;0.000159;0.001229;0.0;25490;25490;25490;0.0;0.0;1;-30.0;30.0;
1604;502;0.000229;0.00139;0.0;376.0;22423;22423;0.0;0.0;1;-30.0;30.0;
2842;502;0.0002;0.00156;0.0;338.0;20084;20084;0.0;0.0;1;-30.0;30.0;
1354;513;0.00145;0.00824;0.0;281.0;3776;3776;0.0;0.0;1;-30.0;30.0;
1354;502;0.00069;0.005;0.0;491.0;6259;6259;0.0;0.0;1;-30.0;30.0;
891;3697;0.00036;0.00455;0.0;1809.0;6921;6921;0.0;0.0;1;-30.0;30.0;
891;3697;0.00036;0.00453;0.0;1776.0;6952;6952;0.0;0.0;1;-30.0;30.0;
8312;7541;0.00066;0.00997;0.0;1348.0;3162;3162;0.0;0.0;1;-30.0;30.0;
8312;7541;0.00064;0.01016;0.0;986.0;3103;3103;0.0;0.0;1;-30.0;30.0;
6306;4826;9.9e-05;0.00044;0.0;529.0;70039;70039;0.0;0.0;1;-30.0;30.0;
4826;4418;6e-05;0.000469;0.0;66806;66806;66806;0.0;0.0;1;-30.0;30.0;
4826;1605;3.9e-05;0.000341;0.0;92032;92032;92032;0.0;0.0;1;-30.0;30.0;
4826;6952;0.002531;0.01943;0.0;433.0;1613;1613;0.0;0.0;1;-30.0;30.0;
4826;7124;0.00945;0.06418;0.0;414.0;487;487;0.0;0.0;1;-30.0;30.0;
9128;217;0.000591;0.002831;0.0;357.0;10923;10923;0.0;0.0;1;-30.0;30.0;
7014;217;0.00087;0.00387;0.0;7964;7964;7964;0.0;0.0;1;-30.0;30.0;
720;5350;0.0015;0.01785;0.0;1183.0;1764;1764;0.0;0.0;1;-30.0;30.0;
720;5350;0.00147;0.0182;0.0;1151.0;1730;1730;0.0;0.0;1;-30.0;30.0;
1711;639;0.00151;0.0113;0.0;376.0;2771;2771;0.0;0.0;1;-30.0;30.0;
1711;639;0.001479;0.011521;0.0;395.0;2720;2720;0.0;0.0;1;-30.0;30.0;
1711;9130;0.00174;0.010341;0.0;414.0;3013;3013;0.0;0.0;1;-30.0;30.0;
1711;9130;0.001659;0.01206;0.0;453.0;2595;2595;0.0;0.0;1;-30.0;30.0;
8209;1998;0.00069;0.000479;0.0;37606;37606;37606;0.0;0.0;1;-30.0;30.0;
8209;7974;0.00044;0.00139;0.0;21666;21666;21666;0.0;0.0;1;-30.0;30.0;
1035;8180;0.002039;0.01601;0.0;1958;1958;1958;0.0;0.0;1;-30.0;30.0;
1035;7466;0.01349;0.05662;0.0;357.0;543;543;0.0;0.0;1;-30.0;30.0;
1035;305;0.00082;0.00438;0.0;300.0;7089;7089;0.0;0.0;1;-30.0;30.0;
1035;305;0.0008;0.004461;0.0;281.0;6970;6970;0.0;0.0;1;-30.0;30.0;
1035;5106;0.001091;0.00888;0.0;453.0;3531;3531;0.0;0.0;1;-30.0;30.0;
1035;5106;0.00111;0.007039;0.0;491.0;4433;4433;0.0;0.0;1;-30.0;30.0;
2527;8466;0.000849;0.00537;0.0;433.0;5811;5811;0.0;0.0;1;-30.0;30.0;
8669;8893;0.00061;0.00275;0.0;357.0;11214;11214;0.0;0.0;1;-30.0;30.0;
6206;7691;0.00141;0.0188;0.0;1315.0;1676;1676;0.0;0.0;1;-30.0;30.0;
6206;6624;0.00121;0.01427;0.0;1545.0;2206;2206;0.0;0.0;1;-30.0;30.0;
3240;8158;0.001711;0.007159;0.0;338.0;4292;4292;0.0;0.0;1;-30.0;30.0;
3240;8795;0.00545;0.02381;0.0;300.0;1294;1294;0.0;0.0;1;-30.0;30.0;
3240;4143;0.000771;0.004331;0.0;7181;7181;7181;0.0;0.0;1;-30.0;30.0;
3240;2797;0.00414;0.03282;0.0;453.0;955;955;0.0;0.0;1;-30.0;30.0;
3240;6331;0.00264;0.011521;0.0;338.0;2673;2673;0.0;0.0;1;-30.0;30.0;
3240;6384;0.00261;0.011;0.0;376.0;2795;2795;0.0;0.0;1;-30.0;30.0;
3240;7523;0.00239;0.00919;0.0;319.0;3327;3327;0.0;0.0;1;-30.0;30.0;
3240;2889;0.000539;0.00226;0.0;13596;13596;13596;0.0;0.0;1;-30.0;30.0;
...
